DSS_original/FLX_LoadsLV.dss
new load.3FFLX1 bus1=BUSLVFLX1188.1.2.3 kV=0.24 model=1 conn=wye kW=1.0 kvar=0.1 status=variable phases=3 daily=curve313_00R !kWh=312.57 class=R !Group=N/A  
new load.1FFLX2 bus1=BUSLVFLX564.1.2 kV=0.24 model=1 conn=wye kW=1.0 kvar=0.1 status=variable phases=1 daily=curve369_00R !kWh=373.88 class=R !Group=N/A  
new load.1FFLX3 bus1=BUSLVFLX536.1.2 kV=0.24 model=1 conn=wye kW=1.0 kvar=0.1 status=variable phases=1 daily=curve275_00R !kWh=277.25 class=R !Group=N/A  
new load.1FFLX4 bus1=BUSLVFLX1026.1.2 kV=0.24 model=1 conn=wye kW=1.0 kvar=0.1 status=variable phases=1 daily=curve225_00R !kWh=222.78 class=R !Group=N/A  
new load.3FFLX5 bus1=BUSLVFLX1137.1.2.3 kV=0.24 model=1 conn=wye kW=1.0 kvar=0.1 status=variable phases=3 daily=curve380_00R !kWh=384.16 class=R !Group=N/A  
new load.1FFLX6 bus1=BUSLVFLX61.1.2 kV=0.24 model=1 conn=wye kW=1.0 kvar=0.1 status=variable phases=1 daily=curve445_44R !kWh=447.58 class=R !Group=N/A  
new load.1FFLX7 bus1=BUSLVFLX886.1.2 kV=0.24 model=1 conn=wye kW=1.0 kvar=0.1 status=variable phases=1 daily=curve401_82R !kWh=403.64 class=R !Group=N/A  
new load.1FFLX8 bus1=BUSLVFLX837.1.2 kV=0.24 model=1 conn=wye kW=1.0 kvar=0.1 status=variable phases=1 daily=curve459_00R !kWh=455.48 class=R !Group=N/A  
new load.3FFLX9 bus1=BUSLVFLX1172.1.2.3 kV=0.24 model=1 conn=wye kW=1.0 kvar=0.1 status=variable phases=3 daily=curve255_96R !kWh=258.75 class=R !Group=N/A  
new load.1FFLX10 bus1=BUSLVFLX1011.1.2 kV=0.24 model=1 conn=wye kW=1.0 kvar=0.1 status=variable phases=1 daily=curve413_00R !kWh=417.5 class=R !Group=N/A  
new load.1FFLX11 bus1=BUSLVFLX847.1.2 kV=0.24 model=1 conn=wye kW=1.0 kvar=0.1 status=variable phases=1 daily=curve470_34R !kWh=475.07 class=R !Group=N/A  
new load.1FFLX12 bus1=BUSLVFLX791.1.2 kV=0.24 model=1 conn=wye kW=1.0 kvar=0.1 status=variable phases=1 daily=curve339_00R !kWh=341.25 class=R !Group=N/A  
new load.1FFLX13 bus1=BUSLVFLX367.1.2 kV=0.24 model=1 conn=wye kW=1.0 kvar=0.1 status=variable phases=1 daily=curve219_48R !kWh=219.36 class=R !Group=N/A  
new load.1FFLX14 bus1=BUSLVFLX948.1.2 kV=0.24 model=1 conn=wye kW=1.0 kvar=0.1 status=variable phases=1 daily=curve264_00R !kWh=264.15 class=R !Group=N/A  
new load.1FFLX15 bus1=BUSLVFLX893.1.2 kV=0.24 model=1 conn=wye kW=1.0 kvar=0.1 status=variable phases=1 daily=curve423_36R !kWh=428.16 class=R !Group=N/A  
new load.1FFLX16 bus1=BUSLVFLX758.1.2 kV=0.24 model=1 conn=wye kW=1.0 kvar=0.1 status=variable phases=1 daily=curve401_82R !kWh=399.45 class=R !Group=N/A  
new load.1FFLX17 bus1=BUSLVFLX798.1.2 kV=0.24 model=1 conn=wye kW=1.0 kvar=0.1 status=variable phases=1 daily=curve242_00R !kWh=241.72 class=R !Group=N/A  
new load.1FFLX18 bus1=BUSLVFLX155.1.2 kV=0.24 model=1 conn=wye kW=1.0 kvar=0.1 status=variable phases=1 daily=curve390_02R !kWh=387.79 class=R !Group=N/A  
new load.1FFLX19 bus1=BUSLVFLX323.1.2 kV=0.24 model=1 conn=wye kW=1.0 kvar=0.1 status=variable phases=1 daily=curve459_00R !kWh=455.48 class=R !Group=N/A  
new load.3FFLX20 bus1=BUSLVFLX1262.1.2.3 kV=0.24 model=1 conn=wye kW=1.0 kvar=0.1 status=variable phases=3 daily=curve264_00R !kWh=261.47 class=R !Group=N/A  
new load.3FFLX21 bus1=BUSLVFLX1138.1.2.3 kV=0.24 model=1 conn=wye kW=1.0 kvar=0.1 status=variable phases=3 daily=curve230_00R !kWh=229.37 class=R !Group=N/A  
new load.1FFLX22 bus1=BUSLVFLX180.1.2 kV=0.24 model=1 conn=wye kW=1.0 kvar=0.1 status=variable phases=1 daily=curve301_77R !kWh=302.51 class=R !Group=N/A  
new load.3FFLX23 bus1=BUSLVFLX1146.1.2.3 kV=0.24 model=1 conn=wye kW=1.0 kvar=0.1 status=variable phases=3 daily=curve325_00R !kWh=320.19 class=R !Group=N/A  
new load.1FFLX24 bus1=BUSLVFLX108.1.2 kV=0.24 model=1 conn=wye kW=1.0 kvar=0.1 status=variable phases=1 daily=curve506_00R !kWh=505.37 class=R !Group=N/A  
new load.1FFLX25 bus1=BUSLVFLX232.1.2 kV=0.24 model=1 conn=wye kW=1.0 kvar=0.1 status=variable phases=1 daily=curve235_80R !kWh=238.72 class=R !Group=N/A  
new load.1FFLX26 bus1=BUSLVFLX558.1.2 kV=0.24 model=1 conn=wye kW=1.0 kvar=0.1 status=variable phases=1 daily=curve242_00R !kWh=241.72 class=R !Group=N/A  
new load.1FFLX27 bus1=BUSLVFLX732.1.2 kV=0.24 model=1 conn=wye kW=1.0 kvar=0.1 status=variable phases=1 daily=curve235_80R !kWh=235.67 class=R !Group=N/A  
new load.1FFLX28 bus1=BUSLVFLX144.1.2 kV=0.24 model=1 conn=wye kW=1.0 kvar=0.1 status=variable phases=1 daily=curve339_00R !kWh=335.85 class=R !Group=N/A  
new load.1FFLX29 bus1=BUSLVFLX1031.1.2 kV=0.24 model=1 conn=wye kW=1.0 kvar=0.1 status=variable phases=1 daily=curve283_00R !kWh=282.36 class=R !Group=N/A  
new load.1FFLX30 bus1=BUSLVFLX337.1.2 kV=0.24 model=1 conn=wye kW=1.0 kvar=0.1 status=variable phases=1 daily=curve459_00R !kWh=455.48 class=R !Group=N/A  
new load.1FFLX31 bus1=BUSLVFLX389.1.2 kV=0.24 model=1 conn=wye kW=1.0 kvar=0.1 status=variable phases=1 daily=curve283_00R !kWh=279.81 class=R !Group=N/A  
new load.1FFLX32 bus1=BUSLVFLX104.1.2 kV=0.24 model=1 conn=wye kW=1.0 kvar=0.1 status=variable phases=1 daily=curve313_00R !kWh=312.57 class=R !Group=N/A  
new load.1FFLX33 bus1=BUSLVFLX819.1.2 kV=0.24 model=1 conn=wye kW=1.0 kvar=0.1 status=variable phases=1 daily=curve346_00R !kWh=343.99 class=R !Group=N/A  
new load.1FFLX34 bus1=BUSLVFLX548.1.2 kV=0.24 model=1 conn=wye kW=1.0 kvar=0.1 status=variable phases=1 daily=curve413_00R !kWh=408.03 class=R !Group=N/A  
new load.1FFLX35 bus1=BUSLVFLX384.1.2 kV=0.24 model=1 conn=wye kW=1.0 kvar=0.1 status=variable phases=1 daily=curve269_45R !kWh=266.81 class=R !Group=N/A  
new load.1FFLX36 bus1=BUSLVFLX298.1.2 kV=0.24 model=1 conn=wye kW=1.0 kvar=0.1 status=variable phases=1 daily=curve413_00R !kWh=417.5 class=R !Group=N/A  
new load.1FFLX37 bus1=BUSLVFLX250.1.2 kV=0.24 model=1 conn=wye kW=1.0 kvar=0.1 status=variable phases=1 daily=curve325_00R !kWh=327.93 class=R !Group=N/A  
new load.1FFLX38 bus1=BUSLVFLX179.1.2 kV=0.24 model=1 conn=wye kW=1.0 kvar=0.1 status=variable phases=1 daily=curve325_00R !kWh=322.75 class=R !Group=N/A  
new load.1FFLX39 bus1=BUSLVFLX795.1.2 kV=0.24 model=1 conn=wye kW=1.0 kvar=0.1 status=variable phases=1 daily=curve325_00R !kWh=322.75 class=R !Group=N/A  
new load.1FFLX40 bus1=BUSLVFLX1067.1.2 kV=0.24 model=1 conn=wye kW=1.0 kvar=0.1 status=variable phases=1 daily=curve413_00R !kWh=408.03 class=R !Group=N/A  
new load.1FFLX41 bus1=BUSLVFLX418.1.2 kV=0.24 model=1 conn=wye kW=1.0 kvar=0.1 status=variable phases=1 daily=curve506_00R !kWh=505.37 class=R !Group=N/A  
new load.1FFLX42 bus1=BUSLVFLX713.1.2 kV=0.24 model=1 conn=wye kW=1.0 kvar=0.1 status=variable phases=1 daily=curve339_00R !kWh=335.85 class=R !Group=N/A  
new load.3FFLX43 bus1=BUSLVFLX1120.1.2.3 kV=0.24 model=1 conn=wye kW=1.0 kvar=0.1 status=variable phases=3 daily=curve299_22R !kWh=300.0 class=R !Group=N/A  
new load.1FFLX44 bus1=BUSLVFLX770.1.2 kV=0.24 model=1 conn=wye kW=1.0 kvar=0.1 status=variable phases=1 daily=curve401_82R !kWh=399.45 class=R !Group=N/A  
new load.1FFLX45 bus1=BUSLVFLX696.1.2 kV=0.24 model=1 conn=wye kW=1.0 kvar=0.1 status=variable phases=1 daily=curve332_00R !kWh=330.55 class=R !Group=N/A  
new load.1FFLX46 bus1=BUSLVFLX258.1.2 kV=0.24 model=1 conn=wye kW=1.0 kvar=0.1 status=variable phases=1 daily=curve275_00R !kWh=277.25 class=R !Group=N/A  
new load.1FFLX47 bus1=BUSLVFLX716.1.2 kV=0.24 model=1 conn=wye kW=1.0 kvar=0.1 status=variable phases=1 daily=curve390_02R !kWh=391.54 class=R !Group=N/A  
new load.1FFLX48 bus1=BUSLVFLX198.1.2 kV=0.24 model=1 conn=wye kW=1.0 kvar=0.1 status=variable phases=1 daily=curve325_00R !kWh=322.75 class=R !Group=N/A  
new load.1FFLX49 bus1=BUSLVFLX518.1.2 kV=0.24 model=1 conn=wye kW=1.0 kvar=0.1 status=variable phases=1 daily=curve445_44R !kWh=440.51 class=R !Group=N/A  
new load.1FFLX50 bus1=BUSLVFLX467.1.2 kV=0.24 model=1 conn=wye kW=1.0 kvar=0.1 status=variable phases=1 daily=curve339_00R !kWh=335.85 class=R !Group=N/A  
new load.1FFLX51 bus1=BUSLVFLX498.1.2 kV=0.24 model=1 conn=wye kW=1.0 kvar=0.1 status=variable phases=1 daily=curve299_22R !kWh=297.49 class=R !Group=N/A  
new load.1FFLX52 bus1=BUSLVFLX987.1.2 kV=0.24 model=1 conn=wye kW=1.0 kvar=0.1 status=variable phases=1 daily=curve283_00R !kWh=282.36 class=R !Group=N/A  
new load.3FFLX53 bus1=BUSLVFLX1141.1.2.3 kV=0.24 model=1 conn=wye kW=1.0 kvar=0.1 status=variable phases=3 daily=curve269_45R !kWh=272.07 class=R !Group=N/A  
new load.1FFLX54 bus1=BUSLVFLX281.1.2 kV=0.24 model=1 conn=wye kW=1.0 kvar=0.1 status=variable phases=1 daily=curve445_44R !kWh=447.58 class=R !Group=N/A  
new load.1FFLX55 bus1=BUSLVFLX480.1.2 kV=0.24 model=1 conn=wye kW=1.0 kvar=0.1 status=variable phases=1 daily=curve380_00R !kWh=384.16 class=R !Group=N/A  
new load.1FFLX56 bus1=BUSLVFLX967.1.2 kV=0.24 model=1 conn=wye kW=1.0 kvar=0.1 status=variable phases=1 daily=curve380_00R !kWh=380.64 class=R !Group=N/A  
new load.1FFLX57 bus1=BUSLVFLX1019.1.2 kV=0.24 model=1 conn=wye kW=1.0 kvar=0.1 status=variable phases=1 daily=curve313_00R !kWh=317.64 class=R !Group=N/A  
new load.1FFLX58 bus1=BUSLVFLX382.1.2 kV=0.24 model=1 conn=wye kW=1.0 kvar=0.1 status=variable phases=1 daily=curve283_00R !kWh=287.43 class=R !Group=N/A  
new load.3FFLX59 bus1=BUSLVFLX1148.1.2.3 kV=0.24 model=1 conn=wye kW=1.0 kvar=0.1 status=variable phases=3 daily=curve255_96R !kWh=253.23 class=R !Group=N/A  
new load.1FFLX60 bus1=BUSLVFLX94.1.2 kV=0.24 model=1 conn=wye kW=1.0 kvar=0.1 status=variable phases=1 daily=curve248_00R !kWh=250.41 class=R !Group=N/A  
new load.1FFLX61 bus1=BUSLVFLX438.1.2 kV=0.24 model=1 conn=wye kW=1.0 kvar=0.1 status=variable phases=1 daily=curve230_00R !kWh=229.37 class=R !Group=N/A  
new load.1FFLX62 bus1=BUSLVFLX703.1.2 kV=0.24 model=1 conn=wye kW=1.0 kvar=0.1 status=variable phases=1 daily=curve369_00R !kWh=367.45 class=R !Group=N/A  
new load.1FFLX63 bus1=BUSLVFLX580.1.2 kV=0.24 model=1 conn=wye kW=1.0 kvar=0.1 status=variable phases=1 daily=curve625_00R !kWh=632.63 class=R !Group=N/A  
new load.1FFLX64 bus1=BUSLVFLX878.1.2 kV=0.24 model=1 conn=wye kW=1.0 kvar=0.1 status=variable phases=1 daily=curve313_00R !kWh=315.1 class=R !Group=N/A  
new load.1FFLX65 bus1=BUSLVFLX332.1.2 kV=0.24 model=1 conn=wye kW=1.0 kvar=0.1 status=variable phases=1 daily=curve313_00R !kWh=315.1 class=R !Group=N/A  
new load.1FFLX66 bus1=BUSLVFLX284.1.2 kV=0.24 model=1 conn=wye kW=1.0 kvar=0.1 status=variable phases=1 daily=curve242_00R !kWh=241.72 class=R !Group=N/A  
new load.1FFLX67 bus1=BUSLVFLX721.1.2 kV=0.24 model=1 conn=wye kW=1.0 kvar=0.1 status=variable phases=1 daily=curve380_00R !kWh=380.64 class=R !Group=N/A  
new load.3FFLX68 bus1=BUSLVFLX1288.1.2.3 kV=0.24 model=1 conn=wye kW=1.0 kvar=0.1 status=variable phases=3 daily=curve325_00R !kWh=327.93 class=R !Group=N/A  
new load.3FFLX69 bus1=BUSLVFLX1207.1.2.3 kV=0.24 model=1 conn=wye kW=1.0 kvar=0.1 status=variable phases=3 daily=curve248_00R !kWh=247.56 class=R !Group=N/A  
new load.1FFLX70 bus1=BUSLVFLX959.1.2 kV=0.24 model=1 conn=wye kW=1.0 kvar=0.1 status=variable phases=1 daily=curve235_80R !kWh=238.72 class=R !Group=N/A  
new load.1FFLX71 bus1=BUSLVFLX663.1.2 kV=0.24 model=1 conn=wye kW=1.0 kvar=0.1 status=variable phases=1 daily=curve325_00R !kWh=327.93 class=R !Group=N/A  
new load.1FFLX72 bus1=BUSLVFLX759.1.2 kV=0.24 model=1 conn=wye kW=1.0 kvar=0.1 status=variable phases=1 daily=curve313_00R !kWh=310.04 class=R !Group=N/A  
new load.1FFLX73 bus1=BUSLVFLX1084.1.2 kV=0.24 model=1 conn=wye kW=1.0 kvar=0.1 status=variable phases=1 daily=curve369_00R !kWh=367.45 class=R !Group=N/A  
new load.1FFLX74 bus1=BUSLVFLX461.1.2 kV=0.24 model=1 conn=wye kW=1.0 kvar=0.1 status=variable phases=1 daily=curve423_36R !kWh=428.16 class=R !Group=N/A  
new load.1FFLX75 bus1=BUSLVFLX552.1.2 kV=0.24 model=1 conn=wye kW=1.0 kvar=0.1 status=variable phases=1 daily=curve299_22R !kWh=300.0 class=R !Group=N/A  
new load.3FFLX76 bus1=BUSLVFLX1089.1.2.3 kV=0.24 model=1 conn=wye kW=1.0 kvar=0.1 status=variable phases=3 daily=curve283_00R !kWh=287.43 class=R !Group=N/A  
new load.1FFLX77 bus1=BUSLVFLX628.1.2 kV=0.24 model=1 conn=wye kW=1.0 kvar=0.1 status=variable phases=1 daily=curve353_33R !kWh=355.34 class=R !Group=N/A  
new load.1FFLX78 bus1=BUSLVFLX503.1.2 kV=0.24 model=1 conn=wye kW=1.0 kvar=0.1 status=variable phases=1 daily=curve445_44R !kWh=440.51 class=R !Group=N/A  
new load.1FFLX79 bus1=BUSLVFLX86.1.2 kV=0.24 model=1 conn=wye kW=1.0 kvar=0.1 status=variable phases=1 daily=curve325_00R !kWh=327.93 class=R !Group=N/A  
new load.1FFLX80 bus1=BUSLVFLX133.1.2 kV=0.24 model=1 conn=wye kW=1.0 kvar=0.1 status=variable phases=1 daily=curve401_82R !kWh=399.45 class=R !Group=N/A  
new load.1FFLX81 bus1=BUSLVFLX915.1.2 kV=0.24 model=1 conn=wye kW=1.0 kvar=0.1 status=variable phases=1 daily=curve242_00R !kWh=244.66 class=R !Group=N/A  
new load.3FFLX82 bus1=BUSLVFLX1163.1.2.3 kV=0.24 model=1 conn=wye kW=1.0 kvar=0.1 status=variable phases=3 daily=curve292_50R !kWh=294.98 class=R !Group=N/A  
new load.1FFLX83 bus1=BUSLVFLX410.1.2 kV=0.24 model=1 conn=wye kW=1.0 kvar=0.1 status=variable phases=1 daily=curve292_50R !kWh=289.96 class=R !Group=N/A  
new load.1FFLX84 bus1=BUSLVFLX246.1.2 kV=0.24 model=1 conn=wye kW=1.0 kvar=0.1 status=variable phases=1 daily=curve390_02R !kWh=395.42 class=R !Group=N/A  
new load.3FFLX85 bus1=BUSLVFLX1258.1.2.3 kV=0.24 model=1 conn=wye kW=1.0 kvar=0.1 status=variable phases=3 daily=curve369_00R !kWh=367.45 class=R !Group=N/A  
new load.1FFLX86 bus1=BUSLVFLX991.1.2 kV=0.24 model=1 conn=wye kW=1.0 kvar=0.1 status=variable phases=1 daily=curve445_44R !kWh=447.58 class=R !Group=N/A  
new load.1FFLX87 bus1=BUSLVFLX1051.1.2 kV=0.24 model=1 conn=wye kW=1.0 kvar=0.1 status=variable phases=1 daily=curve264_00R !kWh=264.15 class=R !Group=N/A  
new load.1FFLX88 bus1=BUSLVFLX801.1.2 kV=0.24 model=1 conn=wye kW=1.0 kvar=0.1 status=variable phases=1 daily=curve235_80R !kWh=238.72 class=R !Group=N/A  
new load.1FFLX89 bus1=BUSLVFLX185.1.2 kV=0.24 model=1 conn=wye kW=1.0 kvar=0.1 status=variable phases=1 daily=curve313_00R !kWh=312.57 class=R !Group=N/A  
new load.1FFLX90 bus1=BUSLVFLX871.1.2 kV=0.24 model=1 conn=wye kW=1.0 kvar=0.1 status=variable phases=1 daily=curve235_80R !kWh=235.67 class=R !Group=N/A  
new load.1FFLX91 bus1=BUSLVFLX797.1.2 kV=0.24 model=1 conn=wye kW=1.0 kvar=0.1 status=variable phases=1 daily=curve283_00R !kWh=284.9 class=R !Group=N/A  
new load.3FFLX92 bus1=BUSLVFLX1069.1.2.3 kV=0.24 model=1 conn=wye kW=1.0 kvar=0.1 status=variable phases=3 daily=curve283_00R !kWh=284.9 class=R !Group=N/A  
new load.1FFLX93 bus1=BUSLVFLX761.1.2 kV=0.24 model=1 conn=wye kW=1.0 kvar=0.1 status=variable phases=1 daily=curve275_00R !kWh=277.25 class=R !Group=N/A  
new load.1FFLX94 bus1=BUSLVFLX591.1.2 kV=0.24 model=1 conn=wye kW=1.0 kvar=0.1 status=variable phases=1 daily=curve304_21R !kWh=305.02 class=R !Group=N/A  
new load.1FFLX95 bus1=BUSLVFLX954.1.2 kV=0.24 model=1 conn=wye kW=1.0 kvar=0.1 status=variable phases=1 daily=curve346_00R !kWh=349.59 class=R !Group=N/A  
new load.1FFLX96 bus1=BUSLVFLX905.1.2 kV=0.24 model=1 conn=wye kW=1.0 kvar=0.1 status=variable phases=1 daily=curve380_00R !kWh=377.22 class=R !Group=N/A  
new load.1FFLX97 bus1=BUSLVFLX399.1.2 kV=0.24 model=1 conn=wye kW=1.0 kvar=0.1 status=variable phases=1 daily=curve346_00R !kWh=346.77 class=R !Group=N/A  
new load.1FFLX98 bus1=BUSLVFLX357.1.2 kV=0.24 model=1 conn=wye kW=1.0 kvar=0.1 status=variable phases=1 daily=curve304_21R !kWh=307.53 class=R !Group=N/A  
new load.1FFLX99 bus1=BUSLVFLX167.1.2 kV=0.24 model=1 conn=wye kW=1.0 kvar=0.1 status=variable phases=1 daily=curve219_48R !kWh=219.36 class=R !Group=N/A  
new load.3FFLX100 bus1=BUSLVFLX1072.1.2.3 kV=0.24 model=1 conn=wye kW=1.0 kvar=0.1 status=variable phases=3 daily=curve361_00R !kWh=364.33 class=R !Group=N/A  
new load.1FFLX101 bus1=BUSLVFLX244.1.2 kV=0.24 model=1 conn=wye kW=1.0 kvar=0.1 status=variable phases=1 daily=curve380_00R !kWh=380.64 class=R !Group=N/A  
new load.1FFLX102 bus1=BUSLVFLX398.1.2 kV=0.24 model=1 conn=wye kW=1.0 kvar=0.1 status=variable phases=1 daily=curve304_21R !kWh=305.02 class=R !Group=N/A  
new load.1FFLX103 bus1=BUSLVFLX650.1.2 kV=0.24 model=1 conn=wye kW=1.0 kvar=0.1 status=variable phases=1 daily=curve235_80R !kWh=235.67 class=R !Group=N/A  
new load.1FFLX104 bus1=BUSLVFLX846.1.2 kV=0.24 model=1 conn=wye kW=1.0 kvar=0.1 status=variable phases=1 daily=curve299_22R !kWh=297.49 class=R !Group=N/A  
new load.1FFLX105 bus1=BUSLVFLX939.1.2 kV=0.24 model=1 conn=wye kW=1.0 kvar=0.1 status=variable phases=1 daily=curve313_00R !kWh=315.1 class=R !Group=N/A  
new load.1FFLX106 bus1=BUSLVFLX1062.1.2 kV=0.24 model=1 conn=wye kW=1.0 kvar=0.1 status=variable phases=1 daily=curve248_00R !kWh=247.56 class=R !Group=N/A  
new load.1FFLX107 bus1=BUSLVFLX221.1.2 kV=0.24 model=1 conn=wye kW=1.0 kvar=0.1 status=variable phases=1 daily=curve390_02R !kWh=391.54 class=R !Group=N/A  
new load.1FFLX108 bus1=BUSLVFLX783.1.2 kV=0.24 model=1 conn=wye kW=1.0 kvar=0.1 status=variable phases=1 daily=curve269_45R !kWh=266.81 class=R !Group=N/A  
new load.3FFLX109 bus1=BUSLVFLX1278.1.2.3 kV=0.24 model=1 conn=wye kW=1.0 kvar=0.1 status=variable phases=3 daily=curve275_00R !kWh=274.67 class=R !Group=N/A  
new load.1FFLX110 bus1=BUSLVFLX1196.1.2 kV=0.24 model=1 conn=wye kW=1.0 kvar=0.1 status=variable phases=1 daily=curve275_00R !kWh=277.25 class=R !Group=N/A  
new load.1FFLX111 bus1=BUSLVFLX604.1.2 kV=0.24 model=1 conn=wye kW=1.0 kvar=0.1 status=variable phases=1 daily=curve264_00R !kWh=264.15 class=R !Group=N/A  
new load.1FFLX112 bus1=BUSLVFLX704.1.2 kV=0.24 model=1 conn=wye kW=1.0 kvar=0.1 status=variable phases=1 daily=curve264_00R !kWh=261.47 class=R !Group=N/A  
new load.1FFLX113 bus1=BUSLVFLX839.1.2 kV=0.24 model=1 conn=wye kW=1.0 kvar=0.1 status=variable phases=1 daily=curve248_00R !kWh=247.56 class=R !Group=N/A  
new load.1FFLX114 bus1=BUSLVFLX748.1.2 kV=0.24 model=1 conn=wye kW=1.0 kvar=0.1 status=variable phases=1 daily=curve325_00R !kWh=320.19 class=R !Group=N/A  
new load.1FFLX115 bus1=BUSLVFLX447.1.2 kV=0.24 model=1 conn=wye kW=1.0 kvar=0.1 status=variable phases=1 daily=curve459_00R !kWh=464.49 class=R !Group=N/A  
new load.3FFLX116 bus1=BUSLVFLX1147.1.2.3 kV=0.24 model=1 conn=wye kW=1.0 kvar=0.1 status=variable phases=3 daily=curve248_00R !kWh=250.41 class=R !Group=N/A  
new load.1FFLX117 bus1=BUSLVFLX1029.1.2 kV=0.24 model=1 conn=wye kW=1.0 kvar=0.1 status=variable phases=1 daily=curve413_00R !kWh=408.03 class=R !Group=N/A  
new load.1FFLX118 bus1=BUSLVFLX803.1.2 kV=0.24 model=1 conn=wye kW=1.0 kvar=0.1 status=variable phases=1 daily=curve292_50R !kWh=294.98 class=R !Group=N/A  
new load.1FFLX119 bus1=BUSLVFLX67.1.2 kV=0.24 model=1 conn=wye kW=1.0 kvar=0.1 status=variable phases=1 daily=curve283_00R !kWh=287.43 class=R !Group=N/A  
new load.3FFLX120 bus1=BUSLVFLX1164.1.2.3 kV=0.24 model=1 conn=wye kW=1.0 kvar=0.1 status=variable phases=3 daily=curve325_00R !kWh=320.19 class=R !Group=N/A  
new load.1FFLX121 bus1=BUSLVFLX116.1.2 kV=0.24 model=1 conn=wye kW=1.0 kvar=0.1 status=variable phases=1 daily=curve313_00R !kWh=317.64 class=R !Group=N/A  
new load.3FFLX122 bus1=BUSLVFLX1219.1.2.3 kV=0.24 model=1 conn=wye kW=1.0 kvar=0.1 status=variable phases=3 daily=curve301_77R !kWh=302.51 class=R !Group=N/A  
new load.1FFLX123 bus1=BUSLVFLX545.1.2 kV=0.24 model=1 conn=wye kW=1.0 kvar=0.1 status=variable phases=1 daily=curve339_00R !kWh=341.25 class=R !Group=N/A  
new load.3FFLX124 bus1=BUSLVFLX1144.1.2.3 kV=0.24 model=1 conn=wye kW=1.0 kvar=0.1 status=variable phases=3 daily=curve346_00R !kWh=343.99 class=R !Group=N/A  
new load.1FFLX125 bus1=BUSLVFLX685.1.2 kV=0.24 model=1 conn=wye kW=1.0 kvar=0.1 status=variable phases=1 daily=curve248_00R !kWh=247.56 class=R !Group=N/A  
new load.1FFLX126 bus1=BUSLVFLX385.1.2 kV=0.24 model=1 conn=wye kW=1.0 kvar=0.1 status=variable phases=1 daily=curve325_00R !kWh=325.33 class=R !Group=N/A  
new load.1FFLX127 bus1=BUSLVFLX444.1.2 kV=0.24 model=1 conn=wye kW=1.0 kvar=0.1 status=variable phases=1 daily=curve353_33R !kWh=352.44 class=R !Group=N/A  
new load.3FFLX128 bus1=BUSLVFLX1283.1.2.3 kV=0.24 model=1 conn=wye kW=1.0 kvar=0.1 status=variable phases=3 daily=curve361_00R !kWh=358.28 class=R !Group=N/A  
new load.1FFLX129 bus1=BUSLVFLX131.1.2 kV=0.24 model=1 conn=wye kW=1.0 kvar=0.1 status=variable phases=1 daily=curve325_00R !kWh=320.19 class=R !Group=N/A  
new load.1FFLX130 bus1=BUSLVFLX526.1.2 kV=0.24 model=1 conn=wye kW=1.0 kvar=0.1 status=variable phases=1 daily=curve264_00R !kWh=264.15 class=R !Group=N/A  
new load.1FFLX131 bus1=BUSLVFLX472.1.2 kV=0.24 model=1 conn=wye kW=1.0 kvar=0.1 status=variable phases=1 daily=curve264_00R !kWh=261.47 class=R !Group=N/A  
new load.1FFLX132 bus1=BUSLVFLX181.1.2 kV=0.24 model=1 conn=wye kW=1.0 kvar=0.1 status=variable phases=1 daily=curve230_00R !kWh=232.55 class=R !Group=N/A  
new load.1FFLX133 bus1=BUSLVFLX765.1.2 kV=0.24 model=1 conn=wye kW=1.0 kvar=0.1 status=variable phases=1 daily=curve459_00R !kWh=464.49 class=R !Group=N/A  
new load.1FFLX134 bus1=BUSLVFLX975.1.2 kV=0.24 model=1 conn=wye kW=1.0 kvar=0.1 status=variable phases=1 daily=curve264_00R !kWh=261.47 class=R !Group=N/A  
new load.1FFLX135 bus1=BUSLVFLX951.1.2 kV=0.24 model=1 conn=wye kW=1.0 kvar=0.1 status=variable phases=1 daily=curve413_00R !kWh=412.64 class=R !Group=N/A  
new load.1FFLX136 bus1=BUSLVFLX662.1.2 kV=0.24 model=1 conn=wye kW=1.0 kvar=0.1 status=variable phases=1 daily=curve361_00R !kWh=361.28 class=R !Group=N/A  
new load.1FFLX137 bus1=BUSLVFLX880.1.2 kV=0.24 model=1 conn=wye kW=1.0 kvar=0.1 status=variable phases=1 daily=curve248_00R !kWh=250.41 class=R !Group=N/A  
new load.1FFLX138 bus1=BUSLVFLX579.1.2 kV=0.24 model=1 conn=wye kW=1.0 kvar=0.1 status=variable phases=1 daily=curve445_44R !kWh=440.51 class=R !Group=N/A  
new load.1FFLX139 bus1=BUSLVFLX184.1.2 kV=0.24 model=1 conn=wye kW=1.0 kvar=0.1 status=variable phases=1 daily=curve325_00R !kWh=325.33 class=R !Group=N/A  
new load.1FFLX140 bus1=BUSLVFLX606.1.2 kV=0.24 model=1 conn=wye kW=1.0 kvar=0.1 status=variable phases=1 daily=curve459_00R !kWh=464.49 class=R !Group=N/A  
new load.1FFLX141 bus1=BUSLVFLX666.1.2 kV=0.24 model=1 conn=wye kW=1.0 kvar=0.1 status=variable phases=1 daily=curve413_00R !kWh=412.64 class=R !Group=N/A  
new load.1FFLX142 bus1=BUSLVFLX429.1.2 kV=0.24 model=1 conn=wye kW=1.0 kvar=0.1 status=variable phases=1 daily=curve369_00R !kWh=367.45 class=R !Group=N/A  
new load.1FFLX143 bus1=BUSLVFLX832.1.2 kV=0.24 model=1 conn=wye kW=1.0 kvar=0.1 status=variable phases=1 daily=curve292_50R !kWh=292.47 class=R !Group=N/A  
new load.1FFLX144 bus1=BUSLVFLX57.1.2 kV=0.24 model=1 conn=wye kW=1.0 kvar=0.1 status=variable phases=1 daily=curve299_22R !kWh=297.49 class=R !Group=N/A  
new load.1FFLX145 bus1=BUSLVFLX574.1.2 kV=0.24 model=1 conn=wye kW=1.0 kvar=0.1 status=variable phases=1 daily=curve283_00R !kWh=282.36 class=R !Group=N/A  
new load.1FFLX146 bus1=BUSLVFLX469.1.2 kV=0.24 model=1 conn=wye kW=1.0 kvar=0.1 status=variable phases=1 daily=curve530_25R !kWh=532.63 class=R !Group=N/A  
new load.1FFLX147 bus1=BUSLVFLX902.1.2 kV=0.24 model=1 conn=wye kW=1.0 kvar=0.1 status=variable phases=1 daily=curve413_00R !kWh=412.64 class=R !Group=N/A  
new load.1FFLX148 bus1=BUSLVFLX483.1.2 kV=0.24 model=1 conn=wye kW=1.0 kvar=0.1 status=variable phases=1 daily=curve230_00R !kWh=232.55 class=R !Group=N/A  
new load.1FFLX149 bus1=BUSLVFLX862.1.2 kV=0.24 model=1 conn=wye kW=1.0 kvar=0.1 status=variable phases=1 daily=curve353_33R !kWh=352.44 class=R !Group=N/A  
new load.1FFLX150 bus1=BUSLVFLX924.1.2 kV=0.24 model=1 conn=wye kW=1.0 kvar=0.1 status=variable phases=1 daily=curve304_21R !kWh=307.53 class=R !Group=N/A  
new load.1FFLX151 bus1=BUSLVFLX493.1.2 kV=0.24 model=1 conn=wye kW=1.0 kvar=0.1 status=variable phases=1 daily=curve390_02R !kWh=395.42 class=R !Group=N/A  
new load.1FFLX152 bus1=BUSLVFLX314.1.2 kV=0.24 model=1 conn=wye kW=1.0 kvar=0.1 status=variable phases=1 daily=curve235_80R !kWh=235.67 class=R !Group=N/A  
new load.1FFLX153 bus1=BUSLVFLX767.1.2 kV=0.24 model=1 conn=wye kW=1.0 kvar=0.1 status=variable phases=1 daily=curve283_00R !kWh=287.43 class=R !Group=N/A  
new load.1FFLX154 bus1=BUSLVFLX154.1.2 kV=0.24 model=1 conn=wye kW=1.0 kvar=0.1 status=variable phases=1 daily=curve369_00R !kWh=370.63 class=R !Group=N/A  
new load.1FFLX155 bus1=BUSLVFLX378.1.2 kV=0.24 model=1 conn=wye kW=1.0 kvar=0.1 status=variable phases=1 daily=curve255_96R !kWh=253.23 class=R !Group=N/A  
new load.1FFLX156 bus1=BUSLVFLX157.1.2 kV=0.24 model=1 conn=wye kW=1.0 kvar=0.1 status=variable phases=1 daily=curve283_00R !kWh=284.9 class=R !Group=N/A  
new load.1FFLX157 bus1=BUSLVFLX764.1.2 kV=0.24 model=1 conn=wye kW=1.0 kvar=0.1 status=variable phases=1 daily=curve325_00R !kWh=325.33 class=R !Group=N/A  
new load.1FFLX158 bus1=BUSLVFLX998.1.2 kV=0.24 model=1 conn=wye kW=1.0 kvar=0.1 status=variable phases=1 daily=curve301_77R !kWh=302.51 class=R !Group=N/A  
new load.1FFLX159 bus1=BUSLVFLX262.1.2 kV=0.24 model=1 conn=wye kW=1.0 kvar=0.1 status=variable phases=1 daily=curve225_00R !kWh=226.12 class=R !Group=N/A  
new load.1FFLX160 bus1=BUSLVFLX511.1.2 kV=0.24 model=1 conn=wye kW=1.0 kvar=0.1 status=variable phases=1 daily=curve283_00R !kWh=284.9 class=R !Group=N/A  
new load.1FFLX161 bus1=BUSLVFLX1028.1.2 kV=0.24 model=1 conn=wye kW=1.0 kvar=0.1 status=variable phases=1 daily=curve369_00R !kWh=373.88 class=R !Group=N/A  
new load.1FFLX162 bus1=BUSLVFLX75.1.2 kV=0.24 model=1 conn=wye kW=1.0 kvar=0.1 status=variable phases=1 daily=curve269_45R !kWh=266.81 class=R !Group=N/A  
new load.1FFLX163 bus1=BUSLVFLX739.1.2 kV=0.24 model=1 conn=wye kW=1.0 kvar=0.1 status=variable phases=1 daily=curve380_00R !kWh=377.22 class=R !Group=N/A  
new load.1FFLX164 bus1=BUSLVFLX1087.1.2 kV=0.24 model=1 conn=wye kW=1.0 kvar=0.1 status=variable phases=1 daily=curve304_21R !kWh=307.53 class=R !Group=N/A  
new load.1FFLX165 bus1=BUSLVFLX56.1.2 kV=0.24 model=1 conn=wye kW=1.0 kvar=0.1 status=variable phases=1 daily=curve445_44R !kWh=447.58 class=R !Group=N/A  
new load.1FFLX166 bus1=BUSLVFLX164.1.2 kV=0.24 model=1 conn=wye kW=1.0 kvar=0.1 status=variable phases=1 daily=curve380_00R !kWh=377.22 class=R !Group=N/A  
new load.1FFLX167 bus1=BUSLVFLX724.1.2 kV=0.24 model=1 conn=wye kW=1.0 kvar=0.1 status=variable phases=1 daily=curve470_34R !kWh=475.07 class=R !Group=N/A  
new load.1FFLX168 bus1=BUSLVFLX578.1.2 kV=0.24 model=1 conn=wye kW=1.0 kvar=0.1 status=variable phases=1 daily=curve339_00R !kWh=335.85 class=R !Group=N/A  
new load.1FFLX169 bus1=BUSLVFLX243.1.2 kV=0.24 model=1 conn=wye kW=1.0 kvar=0.1 status=variable phases=1 daily=curve292_50R !kWh=289.96 class=R !Group=N/A  
new load.1FFLX170 bus1=BUSLVFLX432.1.2 kV=0.24 model=1 conn=wye kW=1.0 kvar=0.1 status=variable phases=1 daily=curve219_48R !kWh=219.36 class=R !Group=N/A  
new load.1FFLX171 bus1=BUSLVFLX992.1.2 kV=0.24 model=1 conn=wye kW=1.0 kvar=0.1 status=variable phases=1 daily=curve283_00R !kWh=282.36 class=R !Group=N/A  
new load.1FFLX172 bus1=BUSLVFLX373.1.2 kV=0.24 model=1 conn=wye kW=1.0 kvar=0.1 status=variable phases=1 daily=curve242_00R !kWh=244.66 class=R !Group=N/A  
new load.3FFLX173 bus1=BUSLVFLX1118.1.2.3 kV=0.24 model=1 conn=wye kW=1.0 kvar=0.1 status=variable phases=3 daily=curve264_00R !kWh=261.47 class=R !Group=N/A  
new load.1FFLX174 bus1=BUSLVFLX60.1.2 kV=0.24 model=1 conn=wye kW=1.0 kvar=0.1 status=variable phases=1 daily=curve459_00R !kWh=455.48 class=R !Group=N/A  
new load.1FFLX175 bus1=BUSLVFLX1074.1.2 kV=0.24 model=1 conn=wye kW=1.0 kvar=0.1 status=variable phases=1 daily=curve369_00R !kWh=373.88 class=R !Group=N/A  
new load.1FFLX176 bus1=BUSLVFLX141.1.2 kV=0.24 model=1 conn=wye kW=1.0 kvar=0.1 status=variable phases=1 daily=curve530_25R !kWh=532.63 class=R !Group=N/A  
new load.1FFLX177 bus1=BUSLVFLX175.1.2 kV=0.24 model=1 conn=wye kW=1.0 kvar=0.1 status=variable phases=1 daily=curve339_00R !kWh=335.85 class=R !Group=N/A  
new load.1FFLX178 bus1=BUSLVFLX736.1.2 kV=0.24 model=1 conn=wye kW=1.0 kvar=0.1 status=variable phases=1 daily=curve248_00R !kWh=247.56 class=R !Group=N/A  
new load.1FFLX179 bus1=BUSLVFLX827.1.2 kV=0.24 model=1 conn=wye kW=1.0 kvar=0.1 status=variable phases=1 daily=curve481_00R !kWh=488.08 class=R !Group=N/A  
new load.1FFLX180 bus1=BUSLVFLX202.1.2 kV=0.24 model=1 conn=wye kW=1.0 kvar=0.1 status=variable phases=1 daily=curve445_44R !kWh=440.51 class=R !Group=N/A  
new load.1FFLX181 bus1=BUSLVFLX936.1.2 kV=0.24 model=1 conn=wye kW=1.0 kvar=0.1 status=variable phases=1 daily=curve255_96R !kWh=253.23 class=R !Group=N/A  
new load.1FFLX182 bus1=BUSLVFLX674.1.2 kV=0.24 model=1 conn=wye kW=1.0 kvar=0.1 status=variable phases=1 daily=curve369_00R !kWh=367.45 class=R !Group=N/A  
new load.1FFLX183 bus1=BUSLVFLX189.1.2 kV=0.24 model=1 conn=wye kW=1.0 kvar=0.1 status=variable phases=1 daily=curve413_00R !kWh=412.64 class=R !Group=N/A  
new load.1FFLX184 bus1=BUSLVFLX1003.1.2 kV=0.24 model=1 conn=wye kW=1.0 kvar=0.1 status=variable phases=1 daily=curve481_00R !kWh=488.08 class=R !Group=N/A  
new load.1FFLX185 bus1=BUSLVFLX308.1.2 kV=0.24 model=1 conn=wye kW=1.0 kvar=0.1 status=variable phases=1 daily=curve304_21R !kWh=305.02 class=R !Group=N/A  
new load.1FFLX186 bus1=BUSLVFLX682.1.2 kV=0.24 model=1 conn=wye kW=1.0 kvar=0.1 status=variable phases=1 daily=curve269_45R !kWh=272.07 class=R !Group=N/A  
new load.1FFLX187 bus1=BUSLVFLX774.1.2 kV=0.24 model=1 conn=wye kW=1.0 kvar=0.1 status=variable phases=1 daily=curve255_96R !kWh=258.75 class=R !Group=N/A  
new load.3FFLX188 bus1=BUSLVFLX1151.1.2.3 kV=0.24 model=1 conn=wye kW=1.0 kvar=0.1 status=variable phases=3 daily=curve380_00R !kWh=384.16 class=R !Group=N/A  
new load.1FFLX189 bus1=BUSLVFLX99.1.2 kV=0.24 model=1 conn=wye kW=1.0 kvar=0.1 status=variable phases=1 daily=curve292_50R !kWh=292.47 class=R !Group=N/A  
new load.1FFLX190 bus1=BUSLVFLX120.1.2 kV=0.24 model=1 conn=wye kW=1.0 kvar=0.1 status=variable phases=1 daily=curve445_44R !kWh=447.58 class=R !Group=N/A  
new load.1FFLX191 bus1=BUSLVFLX830.1.2 kV=0.24 model=1 conn=wye kW=1.0 kvar=0.1 status=variable phases=1 daily=curve325_00R !kWh=325.33 class=R !Group=N/A  
new load.1FFLX192 bus1=BUSLVFLX844.1.2 kV=0.24 model=1 conn=wye kW=1.0 kvar=0.1 status=variable phases=1 daily=curve299_22R !kWh=300.0 class=R !Group=N/A  
new load.3FFLX193 bus1=BUSLVFLX625.1.2.3 kV=0.208 model=1 conn=wye kW=1.0 kvar=0.1 status=variable phases=3 daily=curve413_00R !kWh=412.64 class=R !Group=N/A  
new load.1FFLX194 bus1=BUSLVFLX853.1.2 kV=0.24 model=1 conn=wye kW=1.0 kvar=0.1 status=variable phases=1 daily=curve313_00R !kWh=315.1 class=R !Group=N/A  
new load.1FFLX195 bus1=BUSLVFLX683.1.2 kV=0.24 model=1 conn=wye kW=1.0 kvar=0.1 status=variable phases=1 daily=curve292_50R !kWh=294.98 class=R !Group=N/A  
new load.1FFLX196 bus1=BUSLVFLX872.1.2 kV=0.24 model=1 conn=wye kW=1.0 kvar=0.1 status=variable phases=1 daily=curve230_00R !kWh=229.37 class=R !Group=N/A  
new load.1FFLX197 bus1=BUSLVFLX50.1.2 kV=0.24 model=1 conn=wye kW=1.0 kvar=0.1 status=variable phases=1 daily=curve325_00R !kWh=327.93 class=R !Group=N/A  
new load.1FFLX198 bus1=BUSLVFLX459.1.2 kV=0.24 model=1 conn=wye kW=1.0 kvar=0.1 status=variable phases=1 daily=curve530_25R !kWh=532.63 class=R !Group=N/A  
new load.1FFLX199 bus1=BUSLVFLX717.1.2 kV=0.24 model=1 conn=wye kW=1.0 kvar=0.1 status=variable phases=1 daily=curve283_00R !kWh=282.36 class=R !Group=N/A  
new load.3FFLX200 bus1=BUSLVFLX1216.1.2.3 kV=0.24 model=1 conn=wye kW=1.0 kvar=0.1 status=variable phases=3 daily=curve369_00R !kWh=370.63 class=R !Group=N/A  
...